*Heading
** Job name: panel Model name: panel
** Generated by: Abaqus/CAE 2020
*Preprint, echo=NO, model=NO, history=NO, contact=NO
**
** PARTS
**
*Part, name=plate
*Node
      1,        -125.,           0.,         600.
      2,        -125.,           0.,         590.
      3,        -125.,           0.,         580.
      4,        -125.,           0.,         570.
      5,        -125.,           0.,         560.
      6,        -125.,           0.,         550.
      7,        -125.,           0.,         540.
      8,        -125.,           0.,         530.
      9,        -125.,           0.,         520.
     10,        -125.,           0.,         510.
     11,        -125.,           0.,         500.
     12,        -125.,           0.,         490.
     13,        -125.,           0.,         480.
     14,        -125.,           0.,         470.
     15,        -125.,           0.,         460.
     16,        -125.,           0.,         450.
     17,        -125.,           0.,         440.
     18,        -125.,           0.,         430.
     19,        -125.,           0.,         420.
     20,        -125.,           0.,         410.
** ... 1627 like lines cut
*Element, type=S4R
   1,    1,    2,   63,   62
   2,    2,    3,   64,   63
   3,    3,    4,   65,   64
   4,    4,    5,   66,   65
   5,    5,    6,   67,   66
   6,    6,    7,   68,   67
   7,    7,    8,   69,   68
   8,    8,    9,   70,   69
   9,    9,   10,   71,   70
  10,   10,   11,   72,   71
  11,   11,   12,   73,   72
  12,   12,   13,   74,   73
  13,   13,   14,   75,   74
  14,   14,   15,   76,   75
  15,   15,   16,   77,   76
  16,   16,   17,   78,   77
  17,   17,   18,   79,   78
  18,   18,   19,   80,   79
  19,   19,   20,   81,   80
  20,   20,   21,   82,   81
** ... 1540 like lines cut
** Region: (PlateLayup-1: Generated From Layup)
*Elset, elset=PlateLayup-1, generate
    1,  1560,     1
** Section: PlateLayup-1
*Shell Section, elset=PlateLayup-1, composite, section integration=GAUSS, layup=PlateLayup
0.184, 3, T800M21GPa, 45., Ply-1
0.184, 3, T800M21GPa, -45., Ply-2
0.184, 3, T800M21GPa, 0., Ply-3
0.184, 3, T800M21GPa, 0., Ply-4
0.184, 3, T800M21GPa, 90., Ply-5
0.184, 3, T800M21GPa, 0., Ply-6
0.184, 3, T800M21GPa, 0., Ply-7
0.184, 3, T800M21GPa, 90., Ply-8
0.184, 3, T800M21GPa, 0., Ply-9
0.184, 3, T800M21GPa, 0., Ply-10
0.184, 3, T800M21GPa, -45., Ply-11
0.184, 3, T800M21GPa, 45., Ply-12
*End Part
**  
*Part, name=stiffener
*Node
      1,          63.,   2.20799994,         600.
      2,          27.,   2.20799994,         600.
      3,          27.,   2.20799994,           0.
      4,          63.,   2.20799994,           0.
      5,          15.,   32.2080002,         600.
      6,          15.,   32.2080002,           0.
      7,         -15.,   32.2080002,         600.
      8,         -15.,   32.2080002,           0.
      9,           0.,   32.2080002,           0.
     10,           0.,   32.2080002,         600.
     11,         -27.,   2.20799994,         600.
     12,         -27.,   2.20799994,           0.
     13,         -63.,   2.20799994,         600.
     14,         -63.,   2.20799994,           0.
     15,          59.,   2.20799994,         600.
     16,          55.,   2.20799994,         600.
     17,          51.,   2.20799994,         600.
     18,          47.,   2.20799994,         600.
     19,          43.,   2.20799994,         600.
     20,          39.,   2.20799994,         600.
** ... 6473 like lines cut
*Element, type=S4R
   1,    1,   15,  981,  328
   2,   15,   16,  982,  981
   3,   16,   17,  983,  982
   4,   17,   18,  984,  983
   5,   18,   19,  985,  984
   6,   19,   20,  986,  985
   7,   20,   21,  987,  986
   8,   21,   22,  988,  987
   9,   22,    2,   23,  988
  10,  328,  981,  989,  327
  11,  981,  982,  990,  989
  12,  982,  983,  991,  990
  13,  983,  984,  992,  991
  14,  984,  985,  993,  992
  15,  985,  986,  994,  993
  16,  986,  987,  995,  994
  17,  987,  988,  996,  995
  18,  988,   23,   24,  996
  19,  327,  989,  997,  326
  20,  989,  990,  998,  997
** ... 6280 like lines cut
** Region: (StiffenerLayup-1: Generated From Layup)
*Elset, elset=StiffenerLayup-1, generate
    1,  6300,     1
** Section: StiffenerLayup-1
*Shell Section, elset=StiffenerLayup-1, composite, section integration=GAUSS, layup=StiffenerLayup
0.184, 3, T800M21GPa, 45., Ply-1
0.184, 3, T800M21GPa, -45., Ply-2
0.184, 3, T800M21GPa, 0., Ply-3
0.184, 3, T800M21GPa, 0., Ply-4
0.184, 3, T800M21GPa, 90., Ply-5
0.184, 3, T800M21GPa, 0., Ply-6
0.184, 3, T800M21GPa, 0., Ply-7
0.184, 3, T800M21GPa, 90., Ply-8
0.184, 3, T800M21GPa, 0., Ply-9
0.184, 3, T800M21GPa, 0., Ply-10
0.184, 3, T800M21GPa, -45., Ply-11
0.184, 3, T800M21GPa, 45., Ply-12
*End Part
**  
**
** ASSEMBLY
**
*Assembly, name=Assembly
**  
*Instance, name=plate-1, part=plate
*End Instance
**  
*Instance, name=stiffener-1, part=stiffener
*End Instance
**  
*Node
      1,           0.,   32.2080002,         600.
*Nset, nset=bottom_set, instance=plate-1, generate
    1,  1587,    61
*Nset, nset=bottom_set, instance=stiffener-1
   1,   2,   5,   7,  10,  11,  13,  15,  16,  17,  18,  19,  20,  21,  22, 329
 330, 331, 332, 333, 334, 335, 647, 648, 649, 650, 651, 652, 653, 654, 655, 656
 657, 658, 659, 816, 817, 818, 819, 820, 821, 822, 823
*Elset, elset=bottom_set, instance=plate-1, generate
    1,  1501,    60
*Elset, elset=bottom_set, instance=stiffener-1
    1,    2,    3,    4,    5,    6,    7,    8,    9, 1351, 1352, 1353, 1354, 1355, 1356, 1357
 1358, 2551, 2701, 2851, 3001, 3151, 3301, 3451, 3601, 3751, 3752, 3753, 3754, 3755, 3756, 3757
 3758, 4951, 4952, 4953, 4954, 4955, 4956, 4957, 4958, 4959
*Nset, nset=side_set, instance=plate-1
    1,    2,    3,    4,    5,    6,    7,    8,    9,   10,   11,   12,   13,   14,   15,   16
   17,   18,   19,   20,   21,   22,   23,   24,   25,   26,   27,   28,   29,   30,   31,   32
   33,   34,   35,   36,   37,   38,   39,   40,   41,   42,   43,   44,   45,   46,   47,   48
   49,   50,   51,   52,   53,   54,   55,   56,   57,   58,   59,   60,   61, 1587, 1588, 1589
 1590, 1591, 1592, 1593, 1594, 1595, 1596, 1597, 1598, 1599, 1600, 1601, 1602, 1603, 1604, 1605
 1606, 1607, 1608, 1609, 1610, 1611, 1612, 1613, 1614, 1615, 1616, 1617, 1618, 1619, 1620, 1621
 1622, 1623, 1624, 1625, 1626, 1627, 1628, 1629, 1630, 1631, 1632, 1633, 1634, 1635, 1636, 1637
 1638, 1639, 1640, 1641, 1642, 1643, 1644, 1645, 1646, 1647
*Elset, elset=side_set, instance=plate-1
    1,    2,    3,    4,    5,    6,    7,    8,    9,   10,   11,   12,   13,   14,   15,   16
   17,   18,   19,   20,   21,   22,   23,   24,   25,   26,   27,   28,   29,   30,   31,   32
   33,   34,   35,   36,   37,   38,   39,   40,   41,   42,   43,   44,   45,   46,   47,   48
   49,   50,   51,   52,   53,   54,   55,   56,   57,   58,   59,   60, 1501, 1502, 1503, 1504
 1505, 1506, 1507, 1508, 1509, 1510, 1511, 1512, 1513, 1514, 1515, 1516, 1517, 1518, 1519, 1520
 1521, 1522, 1523, 1524, 1525, 1526, 1527, 1528, 1529, 1530, 1531, 1532, 1533, 1534, 1535, 1536
 1537, 1538, 1539, 1540, 1541, 1542, 1543, 1544, 1545, 1546, 1547, 1548, 1549, 1550, 1551, 1552
 1553, 1554, 1555, 1556, 1557, 1558, 1559, 1560
*Nset, nset=top_set, instance=plate-1, generate
   61,  1647,    61
*Nset, nset=top_set, instance=stiffener-1
   3,   4,   6,   8,   9,  12,  14, 172, 173, 174, 175, 176, 177, 178, 179, 485
 486, 487, 488, 489, 490, 491, 641, 642, 643, 644, 645, 646, 809, 810, 811, 812
 813, 814, 815, 973, 974, 975, 976, 977, 978, 979, 980
*Elset, elset=top_set, instance=plate-1, generate
   60,  1560,    60
*Elset, elset=top_set, instance=stiffener-1
 1342, 1343, 1344, 1345, 1346, 1347, 1348, 1349, 1350, 2543, 2544, 2545, 2546, 2547, 2548, 2549
 2550, 2700, 2850, 3000, 3150, 3300, 3450, 3600, 3750, 4943, 4944, 4945, 4946, 4947, 4948, 4949
 4950, 6292, 6293, 6294, 6295, 6296, 6297, 6298, 6299, 6300
*Nset, nset=_PickedSet15, internal
 1,
*Nset, nset=_PickedSet16, internal
 1,
*Nset, nset=_PickedSet17, internal
 1,
*Elset, elset=_plate_top_surf_SNEG, internal, instance=plate-1, generate
    1,  1560,     1
*Surface, type=ELEMENT, name=plate_top_surf
_plate_top_surf_SNEG, SNEG
*Elset, elset=_stiffener_bottom_surf_SPOS, internal, instance=stiffener-1
    1,    2,    3,    4,    5,    6,    7,    8,    9,   10,   11,   12,   13,   14,   15,   16
   17,   18,   19,   20,   21,   22,   23,   24,   25,   26,   27,   28,   29,   30,   31,   32
   33,   34,   35,   36,   37,   38,   39,   40,   41,   42,   43,   44,   45,   46,   47,   48
   49,   50,   51,   52,   53,   54,   55,   56,   57,   58,   59,   60,   61,   62,   63,   64
   65,   66,   67,   68,   69,   70,   71,   72,   73,   74,   75,   76,   77,   78,   79,   80
   81,   82,   83,   84,   85,   86,   87,   88,   89,   90,   91,   92,   93,   94,   95,   96
   97,   98,   99,  100,  101,  102,  103,  104,  105,  106,  107,  108,  109,  110,  111,  112
  113,  114,  115,  116,  117,  118,  119,  120,  121,  122,  123,  124,  125,  126,  127,  128
  129,  130,  131,  132,  133,  134,  135,  136,  137,  138,  139,  140,  141,  142,  143,  144
  145,  146,  147,  148,  149,  150,  151,  152,  153,  154,  155,  156,  157,  158,  159,  160
  161,  162,  163,  164,  165,  166,  167,  168,  169,  170,  171,  172,  173,  174,  175,  176
  177,  178,  179,  180,  181,  182,  183,  184,  185,  186,  187,  188,  189,  190,  191,  192
  193,  194,  195,  196,  197,  198,  199,  200,  201,  202,  203,  204,  205,  206,  207,  208
  209,  210,  211,  212,  213,  214,  215,  216,  217,  218,  219,  220,  221,  222,  223,  224
  225,  226,  227,  228,  229,  230,  231,  232,  233,  234,  235,  236,  237,  238,  239,  240
  241,  242,  243,  244,  245,  246,  247,  248,  249,  250,  251,  252,  253,  254,  255,  256
  257,  258,  259,  260,  261,  262,  263,  264,  265,  266,  267,  268,  269,  270,  271,  272
  273,  274,  275,  276,  277,  278,  279,  280,  281,  282,  283,  284,  285,  286,  287,  288
  289,  290,  291,  292,  293,  294,  295,  296,  297,  298,  299,  300,  301,  302,  303,  304
  305,  306,  307,  308,  309,  310,  311,  312,  313,  314,  315,  316,  317,  318,  319,  320
** ... 149 like lines cut
*Surface, type=ELEMENT, name=stiffener_bottom_surf
_stiffener_bottom_surf_SPOS, SPOS
** Constraint: Weld
*Tie, name=Weld, adjust=yes
stiffener_bottom_surf, plate_top_surf
** Constraint: loadpoint
*Rigid Body, ref node=_PickedSet15, tie nset=bottom_set
*End Assembly
** 
** MATERIALS
** 
*Material, name=T800M21GPa
*Density
 1.6e-06,
*Elastic, type=LAMINA
139.,  8.1, 0.33,  4.8,  4.8,  3.1
** ----------------------------------------------------------------
** 
** STEP: buckle
** 
*Step, name=buckle, nlgeom=NO, perturbation
*Buckle
1, , 2, 10000
** 
** BOUNDARY CONDITIONS
** 
** Name: clamped Type: Symmetry/Antisymmetry/Encastre
*Boundary, op=NEW, load case=1
top_set, ENCASTRE
*Boundary, op=NEW, load case=2
top_set, ENCASTRE
** Name: slider Type: Displacement/Rotation
*Boundary, op=NEW, load case=1
_PickedSet17, 1, 1
_PickedSet17, 2, 2
_PickedSet17, 4, 4
_PickedSet17, 5, 5
_PickedSet17, 6, 6
*Boundary, op=NEW, load case=2
_PickedSet17, 1, 1
_PickedSet17, 2, 2
_PickedSet17, 4, 4
_PickedSet17, 5, 5
_PickedSet17, 6, 6
** 
** LOADS
** 
** Name: compression   Type: Concentrated force
*Cload
_PickedSet16, 3, -1.
** 
** OUTPUT REQUESTS
** 
*Restart, write, frequency=0
** 
** FIELD OUTPUT: F-Output-1
** 
*Output, field, variable=PRESELECT
*End Step
