1

   Abaqus 2020                                  Date 23-Apr-2020   Time 19:11:55
   For use by Supplied by Team-SolidSQUAD under license from Dassault Systemes or its subsidiary.

                                                                                 
                                                                                 
 STEP    1     INCREMENT     1     STEP TIME    0.00    


                        S T E P       1     C A L C U L A T I O N   O F   E I G E N V A L U E S

                                            F O R   B U C K L I N G   P R E D I C T I O N



                                                                                          

     THE SUBSPACE ITERATION METHOD IS USED FOR THIS ANALYSIS
     NUMBER OF EIGENVALUES                      1
     MAXIMUM NUMBER OF ITERATIONS                  10000
     NUMBER OF VECTORS IN ITERATION                    2
     THE BUCKLING MODE CONSTRAINTS 
      ARE DEFINED AS LOAD CASE 2
                              ONLY INITIAL STRESS EFFECTS ARE INCLUDED IN THE
                              STIFFNESS MATRIX

     THIS IS A LINEAR PERTURBATION STEP.
     ALL LOADS ARE DEFINED AS CHANGE IN LOAD TO THE REFERENCE STATE

     EXTRAPOLATION WILL NOT BE USED

     CHARACTERISTIC ELEMENT LENGTH      5.14    

     DETAILS REGARDING ACTUAL SOLUTION WAVEFRONT REQUESTED

     DETAILED OUTPUT OF DIAGNOSTICS TO DATABASE REQUESTED

     PRINT OF INCREMENT NUMBER, TIME, ETC., TO THE MESSAGE FILE EVERY     1  INCREMENTS

  NUMBER OF EQUATIONS =     30426     NUMBER OF RHS =    1
  NUMBER OF FLOATING PT. OPERATIONS =  2.36E+09

     CHECK POINT   START OF SOLVER    

     CHECK POINT  END OF SOLVER       

       ELAPSED USER TIME (SEC)      =  0.40000    
       ELAPSED SYSTEM TIME (SEC)    =  0.10000    
       ELAPSED TOTAL CPU TIME (SEC) =  0.50000    
       ELAPSED WALLCLOCK TIME (SEC) =          0
 
     ITERATION 1
      1       2.693456e+02     
      2       3.749748e+03     
 
     NUMBER OF EIGENVALUES CONVERGED UPTO THIS ITERATION = 0
 
     ITERATION 2
      1       7.758919e+01     
      2       9.159257e+01     
 
     NUMBER OF EIGENVALUES CONVERGED UPTO THIS ITERATION = 0
 
     ITERATION 3
      1       5.937315e+01     
      2       6.921108e+01     
 
     NUMBER OF EIGENVALUES CONVERGED UPTO THIS ITERATION = 0
 
     ITERATION 4
      1       5.506308e+01     
      2       6.188468e+01     
 
     NUMBER OF EIGENVALUES CONVERGED UPTO THIS ITERATION = 0
 
     ITERATION 5
      1       5.303115e+01     
      2       5.824893e+01     
 
     NUMBER OF EIGENVALUES CONVERGED UPTO THIS ITERATION = 0
 
     ITERATION 6
      1       5.190455e+01     
      2       5.607706e+01     
 
     NUMBER OF EIGENVALUES CONVERGED UPTO THIS ITERATION = 0
 
     ITERATION 7
      1       5.120998e+01     
      2       5.463980e+01     
 
     NUMBER OF EIGENVALUES CONVERGED UPTO THIS ITERATION = 0
 
     ITERATION 8
      1       5.074171e+01     
      2       5.362501e+01     
 
     NUMBER OF EIGENVALUES CONVERGED UPTO THIS ITERATION = 0
 
     ITERATION 9
      1       5.040299e+01     
      2       5.287439e+01     
 
     NUMBER OF EIGENVALUES CONVERGED UPTO THIS ITERATION = 0
 
     ITERATION 10
      1       5.014538e+01     
      2       5.229879e+01     
 
     NUMBER OF EIGENVALUES CONVERGED UPTO THIS ITERATION = 0
 
     ITERATION 11
      1       4.994250e+01     
      2       5.184468e+01     
 
     NUMBER OF EIGENVALUES CONVERGED UPTO THIS ITERATION = 0
 
     ITERATION 12
      1       4.977849e+01     
      2       5.147854e+01     
 
     NUMBER OF EIGENVALUES CONVERGED UPTO THIS ITERATION = 0
 
     ITERATION 13
      1       4.964287e+01     
      2       5.117870e+01     
 
     NUMBER OF EIGENVALUES CONVERGED UPTO THIS ITERATION = 0
 
     ITERATION 14
      1       4.952827e+01     
      2       5.093068e+01     
 
     NUMBER OF EIGENVALUES CONVERGED UPTO THIS ITERATION = 0
 
     ITERATION 15
      1       4.942943e+01     
      2       5.072439e+01     
 
     NUMBER OF EIGENVALUES CONVERGED UPTO THIS ITERATION = 0
 
     ITERATION 16
      1       4.934254e+01     
      2       5.055241e+01     
 
     NUMBER OF EIGENVALUES CONVERGED UPTO THIS ITERATION = 0
 
     ITERATION 17
      1       4.926491e+01     
      2       5.040901e+01     
 
     NUMBER OF EIGENVALUES CONVERGED UPTO THIS ITERATION = 0
 
     ITERATION 18
      1       4.919465e+01     
      2       5.028957e+01     
 
     NUMBER OF EIGENVALUES CONVERGED UPTO THIS ITERATION = 0
 
     ITERATION 19
      1       4.913046e+01     
      2       5.019023e+01     
 
     NUMBER OF EIGENVALUES CONVERGED UPTO THIS ITERATION = 0
 
     ITERATION 20
      1       4.907145e+01     
      2       5.010773e+01     
 
     NUMBER OF EIGENVALUES CONVERGED UPTO THIS ITERATION = 0
 
     ITERATION 21
      1       4.901700e+01     
      2       5.003929e+01     
 
     NUMBER OF EIGENVALUES CONVERGED UPTO THIS ITERATION = 0
 
     ITERATION 22
      1       4.896664e+01     
      2       4.998254e+01     
 
     NUMBER OF EIGENVALUES CONVERGED UPTO THIS ITERATION = 0
 
     ITERATION 23
      1       4.891999e+01     
      2       4.993549e+01     
 
     NUMBER OF EIGENVALUES CONVERGED UPTO THIS ITERATION = 0
 
     ITERATION 24
      1       4.887676e+01     
      2       4.989645e+01     
 
     NUMBER OF EIGENVALUES CONVERGED UPTO THIS ITERATION = 0
 
     ITERATION 25
      1       4.883666e+01     
      2       4.986404e+01     
 
     NUMBER OF EIGENVALUES CONVERGED UPTO THIS ITERATION = 0
 
     ITERATION 26
      1       4.879943e+01     
      2       4.983709e+01     
 
     NUMBER OF EIGENVALUES CONVERGED UPTO THIS ITERATION = 0
 
     ITERATION 27
      1       4.876485e+01     
      2       4.981464e+01     
 
     NUMBER OF EIGENVALUES CONVERGED UPTO THIS ITERATION = 0
 
     ITERATION 28
      1       4.873269e+01     
      2       4.979590e+01     
 
     NUMBER OF EIGENVALUES CONVERGED UPTO THIS ITERATION = 0
 
     ITERATION 29
      1       4.870275e+01     
      2       4.978022e+01     
 
     NUMBER OF EIGENVALUES CONVERGED UPTO THIS ITERATION = 0
 
     ITERATION 30
      1       4.867485e+01     
      2       4.976705e+01     
 
     NUMBER OF EIGENVALUES CONVERGED UPTO THIS ITERATION = 0
 
     ITERATION 31
      1       4.864881e+01     
      2       4.975595e+01     
 
     NUMBER OF EIGENVALUES CONVERGED UPTO THIS ITERATION = 0
 
     ITERATION 32
      1       4.862448e+01     
      2       4.974657e+01     
 
     NUMBER OF EIGENVALUES CONVERGED UPTO THIS ITERATION = 0
 
     ITERATION 33
      1       4.860172e+01     
      2       4.973859e+01     
 
     NUMBER OF EIGENVALUES CONVERGED UPTO THIS ITERATION = 0
 
     ITERATION 34
      1       4.858041e+01     
      2       4.973176e+01     
 
     NUMBER OF EIGENVALUES CONVERGED UPTO THIS ITERATION = 0
 
     ITERATION 35
      1       4.856044e+01     
      2       4.972589e+01     
 
     NUMBER OF EIGENVALUES CONVERGED UPTO THIS ITERATION = 0
 
     ITERATION 36
      1       4.854171e+01     
      2       4.972080e+01     
 
     NUMBER OF EIGENVALUES CONVERGED UPTO THIS ITERATION = 0
 
     ITERATION 37
      1       4.852411e+01     
      2       4.971635e+01     
 
     NUMBER OF EIGENVALUES CONVERGED UPTO THIS ITERATION = 0
 
     ITERATION 38
      1       4.850759e+01     
      2       4.971243e+01     
 
     NUMBER OF EIGENVALUES CONVERGED UPTO THIS ITERATION = 0
 
     ITERATION 39
      1       4.849205e+01     
      2       4.970894e+01     
 
     NUMBER OF EIGENVALUES CONVERGED UPTO THIS ITERATION = 0
 
     ITERATION 40
      1       4.847743e+01     
      2       4.970580e+01     
 
     NUMBER OF EIGENVALUES CONVERGED UPTO THIS ITERATION = 0
 
     ITERATION 41
      1       4.846368e+01     
      2       4.970294e+01     
 
     NUMBER OF EIGENVALUES CONVERGED UPTO THIS ITERATION = 0
 
     ITERATION 42
      1       4.845073e+01     
      2       4.970031e+01     
 
     NUMBER OF EIGENVALUES CONVERGED UPTO THIS ITERATION = 0
 
     ITERATION 43
      1       4.843854e+01     
      2       4.969786e+01     
 
     NUMBER OF EIGENVALUES CONVERGED UPTO THIS ITERATION = 0
 
     ITERATION 44
      1       4.842705e+01     
      2       4.969555e+01     
 
     NUMBER OF EIGENVALUES CONVERGED UPTO THIS ITERATION = 0
 
     ITERATION 45
      1       4.841624e+01     
      2       4.969336e+01     
 
     NUMBER OF EIGENVALUES CONVERGED UPTO THIS ITERATION = 0
 
     ITERATION 46
      1       4.840605e+01     
      2       4.969124e+01     
 
     NUMBER OF EIGENVALUES CONVERGED UPTO THIS ITERATION = 0
 
     ITERATION 47
      1       4.839644e+01     
      2       4.968918e+01     
 
     NUMBER OF EIGENVALUES CONVERGED UPTO THIS ITERATION = 0
 
     ITERATION 48
      1       4.838740e+01     
      2       4.968716e+01     
 
     NUMBER OF EIGENVALUES CONVERGED UPTO THIS ITERATION = 0
 
     ITERATION 49
      1       4.837887e+01     
      2       4.968516e+01     
 
     NUMBER OF EIGENVALUES CONVERGED UPTO THIS ITERATION = 0
 
     ITERATION 50
      1       4.837084e+01     
      2       4.968317e+01     
 
     NUMBER OF EIGENVALUES CONVERGED UPTO THIS ITERATION = 0
 
     ITERATION 51
      1       4.836327e+01     
      2       4.968117e+01     
 
     NUMBER OF EIGENVALUES CONVERGED UPTO THIS ITERATION = 0
 
     ITERATION 52
      1       4.835614e+01     
      2       4.967914e+01     
 
     NUMBER OF EIGENVALUES CONVERGED UPTO THIS ITERATION = 0
 
     ITERATION 53
      1       4.834942e+01     
      2       4.967708e+01     
 
     NUMBER OF EIGENVALUES CONVERGED UPTO THIS ITERATION = 0
 
     ITERATION 54
      1       4.834310e+01     
      2       4.967498e+01     
 
     NUMBER OF EIGENVALUES CONVERGED UPTO THIS ITERATION = 0
 
     ITERATION 55
      1       4.833714e+01     
      2       4.967282e+01     
 
     NUMBER OF EIGENVALUES CONVERGED UPTO THIS ITERATION = 0
 
     ITERATION 56
      1       4.833152e+01     
      2       4.967061e+01     
 
     NUMBER OF EIGENVALUES CONVERGED UPTO THIS ITERATION = 0
 
     ITERATION 57
      1       4.832623e+01     
      2       4.966832e+01     
 
     NUMBER OF EIGENVALUES CONVERGED UPTO THIS ITERATION = 0
 
     ITERATION 58
      1       4.832125e+01     
      2       4.966596e+01     
 
     NUMBER OF EIGENVALUES CONVERGED UPTO THIS ITERATION = 0
 
     ITERATION 59
      1       4.831657e+01     
      2       4.966351e+01     
 
     NUMBER OF EIGENVALUES CONVERGED UPTO THIS ITERATION = 0
 
     ITERATION 60
      1       4.831215e+01     
      2       4.966096e+01     
 
     NUMBER OF EIGENVALUES CONVERGED UPTO THIS ITERATION = 0
 
     ITERATION 61
      1       4.830799e+01     
      2       4.965831e+01     
 
     NUMBER OF EIGENVALUES CONVERGED UPTO THIS ITERATION = 0
 
     ITERATION 62
      1       4.830407e+01     
      2       4.965555e+01     
 
     NUMBER OF EIGENVALUES CONVERGED UPTO THIS ITERATION = 0
 
     ITERATION 63
      1       4.830038e+01     
      2       4.965267e+01     
 
     NUMBER OF EIGENVALUES CONVERGED UPTO THIS ITERATION = 0
 
     ITERATION 64
      1       4.829691e+01     
      2       4.964966e+01     
 
     NUMBER OF EIGENVALUES CONVERGED UPTO THIS ITERATION = 0
 
     ITERATION 65
      1       4.829364e+01     
      2       4.964651e+01     
 
     NUMBER OF EIGENVALUES CONVERGED UPTO THIS ITERATION = 0
 
     ITERATION 66
      1       4.829056e+01     
      2       4.964321e+01     
 
     NUMBER OF EIGENVALUES CONVERGED UPTO THIS ITERATION = 0
 
     ITERATION 67
      1       4.828766e+01     
      2       4.963977e+01     
 
     NUMBER OF EIGENVALUES CONVERGED UPTO THIS ITERATION = 0
 
     ITERATION 68
      1       4.828492e+01     
      2       4.963615e+01     
 
     NUMBER OF EIGENVALUES CONVERGED UPTO THIS ITERATION = 0
 
     ITERATION 69
      1       4.828235e+01     
      2       4.963236e+01     
 
     NUMBER OF EIGENVALUES CONVERGED UPTO THIS ITERATION = 0
 
     ITERATION 70
      1       4.827992e+01     
      2       4.962839e+01     
 
     NUMBER OF EIGENVALUES CONVERGED UPTO THIS ITERATION = 0
 
     ITERATION 71
      1       4.827763e+01     
      2       4.962422e+01     
 
     NUMBER OF EIGENVALUES CONVERGED UPTO THIS ITERATION = 0
 
     ITERATION 72
      1       4.827548e+01     
      2       4.961985e+01     
 
     NUMBER OF EIGENVALUES CONVERGED UPTO THIS ITERATION = 0
 
     ITERATION 73
      1       4.827344e+01     
      2       4.961526e+01     
 
     NUMBER OF EIGENVALUES CONVERGED UPTO THIS ITERATION = 0
 
     ITERATION 74
      1       4.827153e+01     
      2       4.961044e+01     
 
     NUMBER OF EIGENVALUES CONVERGED UPTO THIS ITERATION = 0
 
     ITERATION 75
      1       4.826972e+01     
      2       4.960537e+01     
 
     NUMBER OF EIGENVALUES CONVERGED UPTO THIS ITERATION = 0
 
     ITERATION 76
      1       4.826801e+01     
      2       4.960006e+01     
 
     NUMBER OF EIGENVALUES CONVERGED UPTO THIS ITERATION = 0
 
     ITERATION 77
      1       4.826640e+01     
      2       4.959448e+01     
 
     NUMBER OF EIGENVALUES CONVERGED UPTO THIS ITERATION = 0
 
     ITERATION 78
      1       4.826487e+01     
      2       4.958863e+01     
 
     NUMBER OF EIGENVALUES CONVERGED UPTO THIS ITERATION = 0
 
     ITERATION 79
      1       4.826343e+01     
      2       4.958248e+01     
 
     NUMBER OF EIGENVALUES CONVERGED UPTO THIS ITERATION = 0
 
     ITERATION 80
      1       4.826207e+01     
      2       4.957602e+01     
 
     NUMBER OF EIGENVALUES CONVERGED UPTO THIS ITERATION = 0
 
     ITERATION 81
      1       4.826078e+01     
      2       4.956925e+01     
 
     NUMBER OF EIGENVALUES CONVERGED UPTO THIS ITERATION = 0
 
     ITERATION 82
      1       4.825956e+01     
      2       4.956215e+01     
 
     NUMBER OF EIGENVALUES CONVERGED UPTO THIS ITERATION = 0
 
     ITERATION 83
      1       4.825841e+01     
      2       4.955470e+01     
 
     NUMBER OF EIGENVALUES CONVERGED UPTO THIS ITERATION = 0
 
     ITERATION 84
      1       4.825731e+01     
      2       4.954689e+01     
 
     NUMBER OF EIGENVALUES CONVERGED UPTO THIS ITERATION = 0
 
     ITERATION 85
      1       4.825627e+01     
      2       4.953871e+01     
 
     NUMBER OF EIGENVALUES CONVERGED UPTO THIS ITERATION = 0
 
     ITERATION 86
      1       4.825529e+01     
      2       4.953014e+01     
 
     NUMBER OF EIGENVALUES CONVERGED UPTO THIS ITERATION = 0
 
     ITERATION 87
      1       4.825435e+01     
      2       4.952116e+01     
 
     NUMBER OF EIGENVALUES CONVERGED UPTO THIS ITERATION = 0
 
     ITERATION 88
      1       4.825346e+01     
      2       4.951177e+01     
 
     NUMBER OF EIGENVALUES CONVERGED UPTO THIS ITERATION = 0
 
     ITERATION 89
      1       4.825261e+01     
      2       4.950195e+01     
 
     NUMBER OF EIGENVALUES CONVERGED UPTO THIS ITERATION = 0
 
     ITERATION 90
      1       4.825180e+01     
      2       4.949169e+01     
 
     NUMBER OF EIGENVALUES CONVERGED UPTO THIS ITERATION = 0
 
     ITERATION 91
      1       4.825102e+01     
      2       4.948097e+01     
 
     NUMBER OF EIGENVALUES CONVERGED UPTO THIS ITERATION = 0
 
     ITERATION 92
      1       4.825028e+01     
      2       4.946979e+01     
 
     NUMBER OF EIGENVALUES CONVERGED UPTO THIS ITERATION = 0
 
     ITERATION 93
      1       4.824958e+01     
      2       4.945812e+01     
 
     NUMBER OF EIGENVALUES CONVERGED UPTO THIS ITERATION = 0
 
     ITERATION 94
      1       4.824890e+01     
      2       4.944597e+01     
 
     NUMBER OF EIGENVALUES CONVERGED UPTO THIS ITERATION = 0
 
     ITERATION 95
      1       4.824825e+01     
      2       4.943332e+01     
 
     NUMBER OF EIGENVALUES CONVERGED UPTO THIS ITERATION = 0
 
     ITERATION 96
      1       4.824762e+01     
      2       4.942016e+01     
 
     NUMBER OF EIGENVALUES CONVERGED UPTO THIS ITERATION = 0
 
     ITERATION 97
      1       4.824702e+01     
      2       4.940649e+01     
 
     NUMBER OF EIGENVALUES CONVERGED UPTO THIS ITERATION = 0
 
     ITERATION 98
      1       4.824644e+01     
      2       4.939231e+01     
 
     NUMBER OF EIGENVALUES CONVERGED UPTO THIS ITERATION = 0
 
     ITERATION 99
      1       4.824588e+01     
      2       4.937759e+01     
 
     NUMBER OF EIGENVALUES CONVERGED UPTO THIS ITERATION = 0
 
     ITERATION 100
      1       4.824534e+01     
      2       4.936236e+01     
 
     NUMBER OF EIGENVALUES CONVERGED UPTO THIS ITERATION = 0
 
     ITERATION 101
      1       4.824482e+01     
      2       4.934660e+01     
 
     NUMBER OF EIGENVALUES CONVERGED UPTO THIS ITERATION = 0
 
     ITERATION 102
      1       4.824431e+01     
      2       4.933031e+01     
 
     NUMBER OF EIGENVALUES CONVERGED UPTO THIS ITERATION = 0
 
     ITERATION 103
      1       4.824381e+01     
      2       4.931351e+01     
 
     NUMBER OF EIGENVALUES CONVERGED UPTO THIS ITERATION = 0
 
     ITERATION 104
      1       4.824332e+01     
      2       4.929620e+01     
 
     NUMBER OF EIGENVALUES CONVERGED UPTO THIS ITERATION = 0
 
     ITERATION 105
      1       4.824285e+01     
      2       4.927838e+01     
 
     NUMBER OF EIGENVALUES CONVERGED UPTO THIS ITERATION = 0
 
     ITERATION 106
      1       4.824238e+01     
      2       4.926006e+01     
 
     NUMBER OF EIGENVALUES CONVERGED UPTO THIS ITERATION = 0
 
     ITERATION 107
      1       4.824193e+01     
      2       4.924127e+01     
 
     NUMBER OF EIGENVALUES CONVERGED UPTO THIS ITERATION = 0
 
     ITERATION 108
      1       4.824148e+01     
      2       4.922202e+01     
 
     NUMBER OF EIGENVALUES CONVERGED UPTO THIS ITERATION = 0
 
     ITERATION 109
      1       4.824104e+01     
      2       4.920232e+01     
 
     NUMBER OF EIGENVALUES CONVERGED UPTO THIS ITERATION = 0
 
     ITERATION 110
      1       4.824060e+01     
      2       4.918221e+01     
 
     NUMBER OF EIGENVALUES CONVERGED UPTO THIS ITERATION = 0
 
     ITERATION 111
      1       4.824016e+01     
      2       4.916169e+01     
 
     NUMBER OF EIGENVALUES CONVERGED UPTO THIS ITERATION = 0
 
     ITERATION 112
      1       4.823973e+01     
      2       4.914081e+01     
 
     NUMBER OF EIGENVALUES CONVERGED UPTO THIS ITERATION = 0
 
     ITERATION 113
      1       4.823930e+01     
      2       4.911958e+01     
 
     NUMBER OF EIGENVALUES CONVERGED UPTO THIS ITERATION = 0
 
     ITERATION 114
      1       4.823887e+01     
      2       4.909805e+01     
 
     NUMBER OF EIGENVALUES CONVERGED UPTO THIS ITERATION = 0
 
     ITERATION 115
      1       4.823844e+01     
      2       4.907624e+01     
 
     NUMBER OF EIGENVALUES CONVERGED UPTO THIS ITERATION = 0
 
     ITERATION 116
      1       4.823800e+01     
      2       4.905419e+01     
 
     NUMBER OF EIGENVALUES CONVERGED UPTO THIS ITERATION = 0
 
     ITERATION 117
      1       4.823757e+01     
      2       4.903194e+01     
 
     NUMBER OF EIGENVALUES CONVERGED UPTO THIS ITERATION = 0
 
     ITERATION 118
      1       4.823713e+01     
      2       4.900953e+01     
 
     NUMBER OF EIGENVALUES CONVERGED UPTO THIS ITERATION = 0
 
     ITERATION 119
      1       4.823668e+01     
      2       4.898700e+01     
 
     NUMBER OF EIGENVALUES CONVERGED UPTO THIS ITERATION = 0
 
     ITERATION 120
      1       4.823623e+01     
      2       4.896439e+01     
 
     NUMBER OF EIGENVALUES CONVERGED UPTO THIS ITERATION = 0
 
     ITERATION 121
      1       4.823577e+01     
      2       4.894175e+01     
 
     NUMBER OF EIGENVALUES CONVERGED UPTO THIS ITERATION = 0
 
     ITERATION 122
      1       4.823531e+01     
      2       4.891911e+01     
 
     NUMBER OF EIGENVALUES CONVERGED UPTO THIS ITERATION = 0
 
     ITERATION 123
      1       4.823483e+01     
      2       4.889652e+01     
 
     NUMBER OF EIGENVALUES CONVERGED UPTO THIS ITERATION = 0
 
     ITERATION 124
      1       4.823434e+01     
      2       4.887402e+01     
 
     NUMBER OF EIGENVALUES CONVERGED UPTO THIS ITERATION = 0
 
     ITERATION 125
      1       4.823384e+01     
      2       4.885167e+01     
 
     NUMBER OF EIGENVALUES CONVERGED UPTO THIS ITERATION = 0
 
     ITERATION 126
      1       4.823333e+01     
      2       4.882948e+01     
 
     NUMBER OF EIGENVALUES CONVERGED UPTO THIS ITERATION = 0
 
     ITERATION 127
      1       4.823280e+01     
      2       4.880752e+01     
 
     NUMBER OF EIGENVALUES CONVERGED UPTO THIS ITERATION = 0
 
     ITERATION 128
      1       4.823225e+01     
      2       4.878582e+01     
 
     NUMBER OF EIGENVALUES CONVERGED UPTO THIS ITERATION = 0
 
     ITERATION 129
      1       4.823169e+01     
      2       4.876441e+01     
 
     NUMBER OF EIGENVALUES CONVERGED UPTO THIS ITERATION = 0
 
     ITERATION 130
      1       4.823110e+01     
      2       4.874333e+01     
 
     NUMBER OF EIGENVALUES CONVERGED UPTO THIS ITERATION = 0
 
     ITERATION 131
      1       4.823049e+01     
      2       4.872262e+01     
 
     NUMBER OF EIGENVALUES CONVERGED UPTO THIS ITERATION = 0
 
     ITERATION 132
      1       4.822986e+01     
      2       4.870231e+01     
 
     NUMBER OF EIGENVALUES CONVERGED UPTO THIS ITERATION = 0
 
     ITERATION 133
      1       4.822921e+01     
      2       4.868242e+01     
 
     NUMBER OF EIGENVALUES CONVERGED UPTO THIS ITERATION = 0
 
     ITERATION 134
      1       4.822852e+01     
      2       4.866299e+01     
 
     NUMBER OF EIGENVALUES CONVERGED UPTO THIS ITERATION = 0
 
     ITERATION 135
      1       4.822781e+01     
      2       4.864404e+01     
 
     NUMBER OF EIGENVALUES CONVERGED UPTO THIS ITERATION = 0
 
     ITERATION 136
      1       4.822706e+01     
      2       4.862559e+01     
 
     NUMBER OF EIGENVALUES CONVERGED UPTO THIS ITERATION = 0
 
     ITERATION 137
      1       4.822628e+01     
      2       4.860766e+01     
 
     NUMBER OF EIGENVALUES CONVERGED UPTO THIS ITERATION = 0
 
     ITERATION 138
      1       4.822546e+01     
      2       4.859028e+01     
 
     NUMBER OF EIGENVALUES CONVERGED UPTO THIS ITERATION = 0
 
     ITERATION 139
      1       4.822461e+01     
      2       4.857344e+01     
 
     NUMBER OF EIGENVALUES CONVERGED UPTO THIS ITERATION = 0
 
     ITERATION 140
      1       4.822371e+01     
      2       4.855717e+01     
 
     NUMBER OF EIGENVALUES CONVERGED UPTO THIS ITERATION = 0
 
     ITERATION 141
      1       4.822277e+01     
      2       4.854148e+01     
 
     NUMBER OF EIGENVALUES CONVERGED UPTO THIS ITERATION = 0
 
     ITERATION 142
      1       4.822178e+01     
      2       4.852637e+01     
 
     NUMBER OF EIGENVALUES CONVERGED UPTO THIS ITERATION = 0
 
     ITERATION 143
      1       4.822074e+01     
      2       4.851185e+01     
 
     NUMBER OF EIGENVALUES CONVERGED UPTO THIS ITERATION = 0
 
     ITERATION 144
      1       4.821965e+01     
      2       4.849792e+01     
 
     NUMBER OF EIGENVALUES CONVERGED UPTO THIS ITERATION = 0
 
     ITERATION 145
      1       4.821851e+01     
      2       4.848459e+01     
 
     NUMBER OF EIGENVALUES CONVERGED UPTO THIS ITERATION = 0
 
     ITERATION 146
      1       4.821731e+01     
      2       4.847184e+01     
 
     NUMBER OF EIGENVALUES CONVERGED UPTO THIS ITERATION = 0
 
     ITERATION 147
      1       4.821605e+01     
      2       4.845969e+01     
 
     NUMBER OF EIGENVALUES CONVERGED UPTO THIS ITERATION = 0
 
     ITERATION 148
      1       4.821473e+01     
      2       4.844812e+01     
 
     NUMBER OF EIGENVALUES CONVERGED UPTO THIS ITERATION = 0
 
     ITERATION 149
      1       4.821335e+01     
      2       4.843713e+01     
 
     NUMBER OF EIGENVALUES CONVERGED UPTO THIS ITERATION = 0
 
     ITERATION 150
      1       4.821190e+01     
      2       4.842670e+01     
 
     NUMBER OF EIGENVALUES CONVERGED UPTO THIS ITERATION = 0
 
     ITERATION 151
      1       4.821040e+01     
      2       4.841684e+01     
 
     NUMBER OF EIGENVALUES CONVERGED UPTO THIS ITERATION = 0
 
     ITERATION 152
      1       4.820883e+01     
      2       4.840753e+01     
 
     NUMBER OF EIGENVALUES CONVERGED UPTO THIS ITERATION = 0
 
     ITERATION 153
      1       4.820720e+01     
      2       4.839875e+01     
 
     NUMBER OF EIGENVALUES CONVERGED UPTO THIS ITERATION = 0
 
     ITERATION 154
      1       4.820550e+01     
      2       4.839049e+01     
 
     NUMBER OF EIGENVALUES CONVERGED UPTO THIS ITERATION = 0
 
     ITERATION 155
      1       4.820376e+01     
      2       4.838274e+01     
 
     NUMBER OF EIGENVALUES CONVERGED UPTO THIS ITERATION = 0
 
     ITERATION 156
      1       4.820196e+01     
      2       4.837548e+01     
 
     NUMBER OF EIGENVALUES CONVERGED UPTO THIS ITERATION = 0
 
     ITERATION 157
      1       4.820011e+01     
      2       4.836869e+01     
 
     NUMBER OF EIGENVALUES CONVERGED UPTO THIS ITERATION = 0
 
     ITERATION 158
      1       4.819821e+01     
      2       4.836235e+01     
 
     NUMBER OF EIGENVALUES CONVERGED UPTO THIS ITERATION = 0
 
     ITERATION 159
      1       4.819628e+01     
      2       4.835645e+01     
 
     NUMBER OF EIGENVALUES CONVERGED UPTO THIS ITERATION = 0
 
     ITERATION 160
      1       4.819432e+01     
      2       4.835095e+01     
 
     NUMBER OF EIGENVALUES CONVERGED UPTO THIS ITERATION = 0
 
     ITERATION 161
      1       4.819233e+01     
      2       4.834584e+01     
 
     NUMBER OF EIGENVALUES CONVERGED UPTO THIS ITERATION = 0
 
     ITERATION 162
      1       4.819033e+01     
      2       4.834111e+01     
 
     NUMBER OF EIGENVALUES CONVERGED UPTO THIS ITERATION = 0
 
     ITERATION 163
      1       4.818832e+01     
      2       4.833671e+01     
 
     NUMBER OF EIGENVALUES CONVERGED UPTO THIS ITERATION = 0
 
     ITERATION 164
      1       4.818630e+01     
      2       4.833265e+01     
 
     NUMBER OF EIGENVALUES CONVERGED UPTO THIS ITERATION = 0
 
     ITERATION 165
      1       4.818429e+01     
      2       4.832888e+01     
 
     NUMBER OF EIGENVALUES CONVERGED UPTO THIS ITERATION = 0
 
     ITERATION 166
      1       4.818230e+01     
      2       4.832540e+01     
 
     NUMBER OF EIGENVALUES CONVERGED UPTO THIS ITERATION = 0
 
     ITERATION 167
      1       4.818033e+01     
      2       4.832218e+01     
 
     NUMBER OF EIGENVALUES CONVERGED UPTO THIS ITERATION = 0
 
     ITERATION 168
      1       4.817838e+01     
      2       4.831921e+01     
 
     NUMBER OF EIGENVALUES CONVERGED UPTO THIS ITERATION = 0
 
     ITERATION 169
      1       4.817647e+01     
      2       4.831646e+01     
 
     NUMBER OF EIGENVALUES CONVERGED UPTO THIS ITERATION = 0
 
     ITERATION 170
      1       4.817459e+01     
      2       4.831391e+01     
 
     NUMBER OF EIGENVALUES CONVERGED UPTO THIS ITERATION = 0
 
     ITERATION 171
      1       4.817276e+01     
      2       4.831157e+01     
 
     NUMBER OF EIGENVALUES CONVERGED UPTO THIS ITERATION = 0
 
     ITERATION 172
      1       4.817098e+01     
      2       4.830939e+01     
 
     NUMBER OF EIGENVALUES CONVERGED UPTO THIS ITERATION = 0
 
     ITERATION 173
      1       4.816924e+01     
      2       4.830738e+01     
 
     NUMBER OF EIGENVALUES CONVERGED UPTO THIS ITERATION = 0
 
     ITERATION 174
      1       4.816756e+01     
      2       4.830552e+01     
 
     NUMBER OF EIGENVALUES CONVERGED UPTO THIS ITERATION = 0
 
     ITERATION 175
      1       4.816593e+01     
      2       4.830380e+01     
 
     NUMBER OF EIGENVALUES CONVERGED UPTO THIS ITERATION = 0
 
     ITERATION 176
      1       4.816436e+01     
      2       4.830221e+01     
 
     NUMBER OF EIGENVALUES CONVERGED UPTO THIS ITERATION = 0
 
     ITERATION 177
      1       4.816284e+01     
      2       4.830073e+01     
 
     NUMBER OF EIGENVALUES CONVERGED UPTO THIS ITERATION = 0
 
     ITERATION 178
      1       4.816139e+01     
      2       4.829936e+01     
 
     NUMBER OF EIGENVALUES CONVERGED UPTO THIS ITERATION = 0
 
     ITERATION 179
      1       4.815999e+01     
      2       4.829808e+01     
 
     NUMBER OF EIGENVALUES CONVERGED UPTO THIS ITERATION = 0
 
     ITERATION 180
      1       4.815865e+01     
      2       4.829690e+01     
 
     NUMBER OF EIGENVALUES CONVERGED UPTO THIS ITERATION = 0
 
     ITERATION 181
      1       4.815736e+01     
      2       4.829580e+01     
 
     NUMBER OF EIGENVALUES CONVERGED UPTO THIS ITERATION = 0
 
     ITERATION 182
      1       4.815613e+01     
      2       4.829478e+01     
 
     NUMBER OF EIGENVALUES CONVERGED UPTO THIS ITERATION = 0
 
     ITERATION 183
      1       4.815496e+01     
      2       4.829382e+01     
 
     NUMBER OF EIGENVALUES CONVERGED UPTO THIS ITERATION = 0
 
     ITERATION 184
      1       4.815384e+01     
      2       4.829294e+01     
 
     NUMBER OF EIGENVALUES CONVERGED UPTO THIS ITERATION = 0
 
     ITERATION 185
      1       4.815278e+01     
      2       4.829211e+01     
 
     NUMBER OF EIGENVALUES CONVERGED UPTO THIS ITERATION = 0
 
     ITERATION 186
      1       4.815176e+01     
      2       4.829134e+01     
 
     NUMBER OF EIGENVALUES CONVERGED UPTO THIS ITERATION = 0
 
     ITERATION 187
      1       4.815080e+01     
      2       4.829062e+01     
 
     NUMBER OF EIGENVALUES CONVERGED UPTO THIS ITERATION = 0
 
     ITERATION 188
      1       4.814988e+01     
      2       4.828994e+01     
 
     NUMBER OF EIGENVALUES CONVERGED UPTO THIS ITERATION = 0
 
     ITERATION 189
      1       4.814901e+01     
      2       4.828931e+01     
 
     NUMBER OF EIGENVALUES CONVERGED UPTO THIS ITERATION = 0
 
     ITERATION 190
      1       4.814818e+01     
      2       4.828873e+01     
 
     NUMBER OF EIGENVALUES CONVERGED UPTO THIS ITERATION = 0
 
     ITERATION 191
      1       4.814739e+01     
      2       4.828818e+01     
 
     NUMBER OF EIGENVALUES CONVERGED UPTO THIS ITERATION = 0
 
     ITERATION 192
      1       4.814665e+01     
      2       4.828766e+01     
 
     NUMBER OF EIGENVALUES CONVERGED UPTO THIS ITERATION = 0
 
     ITERATION 193
      1       4.814595e+01     
      2       4.828718e+01     
 
     NUMBER OF EIGENVALUES CONVERGED UPTO THIS ITERATION = 0
 
     ITERATION 194
      1       4.814528e+01     
      2       4.828672e+01     
 
     NUMBER OF EIGENVALUES CONVERGED UPTO THIS ITERATION = 0
 
     ITERATION 195
      1       4.814465e+01     
      2       4.828630e+01     
 
     NUMBER OF EIGENVALUES CONVERGED UPTO THIS ITERATION = 0
 
     ITERATION 196
      1       4.814405e+01     
      2       4.828590e+01     
 
     NUMBER OF EIGENVALUES CONVERGED UPTO THIS ITERATION = 0
 
     ITERATION 197
      1       4.814349e+01     
      2       4.828553e+01     
 
     NUMBER OF EIGENVALUES CONVERGED UPTO THIS ITERATION = 0
 
     ITERATION 198
      1       4.814295e+01     
      2       4.828518e+01     
 
     NUMBER OF EIGENVALUES CONVERGED UPTO THIS ITERATION = 0
 
     ITERATION 199
      1       4.814245e+01     
      2       4.828485e+01     
 
     NUMBER OF EIGENVALUES CONVERGED UPTO THIS ITERATION = 0
 
     ITERATION 200
      1       4.814197e+01     
      2       4.828454e+01     
 
     NUMBER OF EIGENVALUES CONVERGED UPTO THIS ITERATION = 0
 
     ITERATION 201
      1       4.814152e+01     
      2       4.828425e+01     
 
     NUMBER OF EIGENVALUES CONVERGED UPTO THIS ITERATION = 0
 
     ITERATION 202
      1       4.814110e+01     
      2       4.828398e+01     
 
     NUMBER OF EIGENVALUES CONVERGED UPTO THIS ITERATION = 0
 
     ITERATION 203
      1       4.814070e+01     
      2       4.828372e+01     
 
     NUMBER OF EIGENVALUES CONVERGED UPTO THIS ITERATION = 0
 
     ITERATION 204
      1       4.814032e+01     
      2       4.828348e+01     
 
     NUMBER OF EIGENVALUES CONVERGED UPTO THIS ITERATION = 0
 
     ITERATION 205
      1       4.813996e+01     
      2       4.828325e+01     
 
     NUMBER OF EIGENVALUES CONVERGED UPTO THIS ITERATION = 0
 
     ITERATION 206
      1       4.813963e+01     
      2       4.828304e+01     
 
     NUMBER OF EIGENVALUES CONVERGED UPTO THIS ITERATION = 0
 
     ITERATION 207
      1       4.813931e+01     
      2       4.828283e+01     
 
     NUMBER OF EIGENVALUES CONVERGED UPTO THIS ITERATION = 0
 
     ITERATION 208
      1       4.813901e+01     
      2       4.828264e+01     
 
     NUMBER OF EIGENVALUES CONVERGED UPTO THIS ITERATION = 0
 
     ITERATION 209
      1       4.813873e+01     
      2       4.828246e+01     
 
     NUMBER OF EIGENVALUES CONVERGED UPTO THIS ITERATION = 0
 
     ITERATION 210
      1       4.813847e+01     
      2       4.828230e+01     
 
     NUMBER OF EIGENVALUES CONVERGED UPTO THIS ITERATION = 0
 
     ITERATION 211
      1       4.813822e+01     
      2       4.828214e+01     
 
     NUMBER OF EIGENVALUES CONVERGED UPTO THIS ITERATION = 0
 
     ITERATION 212
      1       4.813798e+01     
      2       4.828199e+01     
 
     NUMBER OF EIGENVALUES CONVERGED UPTO THIS ITERATION = 0
 
     ITERATION 213
      1       4.813776e+01     
      2       4.828185e+01     
 
     NUMBER OF EIGENVALUES CONVERGED UPTO THIS ITERATION = 0
 
     ITERATION 214
      1       4.813755e+01     
      2       4.828171e+01     
 
     NUMBER OF EIGENVALUES CONVERGED UPTO THIS ITERATION = 0
 
     ITERATION 215
      1       4.813735e+01     
      2       4.828159e+01     
 
     NUMBER OF EIGENVALUES CONVERGED UPTO THIS ITERATION = 0
 
     ITERATION 216
      1       4.813717e+01     
      2       4.828147e+01     
 
     NUMBER OF EIGENVALUES CONVERGED UPTO THIS ITERATION = 0
 
     ITERATION 217
      1       4.813699e+01     
      2       4.828136e+01     
 
     NUMBER OF EIGENVALUES CONVERGED UPTO THIS ITERATION = 0
 
     ITERATION 218
      1       4.813683e+01     
      2       4.828125e+01     
 
     NUMBER OF EIGENVALUES CONVERGED UPTO THIS ITERATION = 0
 
     ITERATION 219
      1       4.813668e+01     
      2       4.828115e+01     
 
     NUMBER OF EIGENVALUES CONVERGED UPTO THIS ITERATION = 0
 
     ITERATION 220
      1       4.813653e+01     
      2       4.828106e+01     
 
     NUMBER OF EIGENVALUES CONVERGED UPTO THIS ITERATION = 0
 
     ITERATION 221
      1       4.813639e+01     
      2       4.828097e+01     
 
     NUMBER OF EIGENVALUES CONVERGED UPTO THIS ITERATION = 0
 
     ITERATION 222
      1       4.813627e+01     
      2       4.828089e+01     
 
     NUMBER OF EIGENVALUES CONVERGED UPTO THIS ITERATION = 0
 
     ITERATION 223
      1       4.813614e+01     
      2       4.828081e+01     
 
     NUMBER OF EIGENVALUES CONVERGED UPTO THIS ITERATION = 0
 
     ITERATION 224
      1       4.813603e+01     
      2       4.828073e+01     
 
     NUMBER OF EIGENVALUES CONVERGED UPTO THIS ITERATION = 0
 
     ITERATION 225
      1       4.813592e+01     
      2       4.828066e+01     
 
     NUMBER OF EIGENVALUES CONVERGED UPTO THIS ITERATION = 0
 
     ITERATION 226
      1       4.813582e+01     
      2       4.828060e+01     
 
     NUMBER OF EIGENVALUES CONVERGED UPTO THIS ITERATION = 0
 
     ITERATION 227
      1       4.813573e+01     
      2       4.828053e+01     
 
     NUMBER OF EIGENVALUES CONVERGED UPTO THIS ITERATION = 0
 
     ITERATION 228
      1       4.813564e+01     
      2       4.828047e+01     
 
     NUMBER OF EIGENVALUES CONVERGED UPTO THIS ITERATION = 0
 
     ITERATION 229
      1       4.813556e+01     
      2       4.828042e+01     
 
     NUMBER OF EIGENVALUES CONVERGED UPTO THIS ITERATION = 0
 
     ITERATION 230
      1       4.813548e+01     
      2       4.828037e+01     
 
     NUMBER OF EIGENVALUES CONVERGED UPTO THIS ITERATION = 0
 
     ITERATION 231
      1       4.813540e+01     
      2       4.828032e+01     
 
     NUMBER OF EIGENVALUES CONVERGED UPTO THIS ITERATION = 0
 
     ITERATION 232
      1       4.813533e+01     
      2       4.828027e+01     
 
     NUMBER OF EIGENVALUES CONVERGED UPTO THIS ITERATION = 0
 
     ITERATION 233
      1       4.813527e+01     
      2       4.828022e+01     
 
     NUMBER OF EIGENVALUES CONVERGED UPTO THIS ITERATION = 0
 
     ITERATION 234
      1       4.813521e+01     
      2       4.828018e+01     
 
     NUMBER OF EIGENVALUES CONVERGED UPTO THIS ITERATION = 0
 
     ITERATION 235
      1       4.813515e+01     
      2       4.828014e+01     
 
     NUMBER OF EIGENVALUES CONVERGED UPTO THIS ITERATION = 0
 
     ITERATION 236
      1       4.813509e+01     
      2       4.828011e+01     
 
     NUMBER OF EIGENVALUES CONVERGED UPTO THIS ITERATION = 0
 
     ITERATION 237
      1       4.813504e+01     
      2       4.828007e+01     
 
     NUMBER OF EIGENVALUES CONVERGED UPTO THIS ITERATION = 0
 
     ITERATION 238
      1       4.813499e+01     
      2       4.828004e+01     
 
     NUMBER OF EIGENVALUES CONVERGED UPTO THIS ITERATION = 0
 
     ITERATION 239
      1       4.813495e+01     
      2       4.828000e+01     
 
     NUMBER OF EIGENVALUES CONVERGED UPTO THIS ITERATION = 1


          THE ANALYSIS HAS BEEN COMPLETED



     ANALYSIS SUMMARY:
     TOTAL OF          1  INCREMENTS
                       0  CUTBACKS IN AUTOMATIC INCREMENTATION
                       1  ITERATIONS INCLUDING CONTACT ITERATIONS IF PRESENT
                       1  PASSES THROUGH THE EQUATION SOLVER OF WHICH 
                       1  INVOLVE MATRIX DECOMPOSITION, INCLUDING
                       0  DECOMPOSITION(S) OF THE MASS MATRIX
                       1  REORDERING OF EQUATIONS TO MINIMIZE WAVEFRONT
                       0  ADDITIONAL RESIDUAL EVALUATIONS FOR LINE SEARCHES
                       0  ADDITIONAL OPERATOR EVALUATIONS FOR LINE SEARCHES
                     284  WARNING MESSAGES DURING USER INPUT PROCESSING
                       0  WARNING MESSAGES DURING ANALYSIS
                       0  ANALYSIS WARNINGS ARE NUMERICAL PROBLEM MESSAGES
                       0  ANALYSIS WARNINGS ARE NEGATIVE EIGENVALUE MESSAGES
                       0  ERROR MESSAGES



     JOB TIME SUMMARY
       USER TIME (SEC)      =   40.100    
       SYSTEM TIME (SEC)    =   1.2000    
       TOTAL CPU TIME (SEC) =   41.300    
       WALLCLOCK TIME (SEC) =         42
